ieee123_VLN_Node.Txt

LINE-GROUND and LINE-LINE VOLTAGES BY BUS & NODE

Bus      Node    VLN (kV)   Angle      pu     Base kV    Node-Node   VLL (kV)  Angle      pu

150 .... 1       2.4018 /_    0.0   0.99999     4.160        1-2       4.16 /_   30.0   0.99999
   -     2       2.4018 /_ -120.0   0.99999     4.160        2-3       4.16 /_  -90.0   0.99999
   -     3       2.4018 /_  120.0   0.99999     4.160        3-1       4.16 /_  150.0   0.99999
150R ... 1        2.495 /_   -0.6    1.0388     4.160        1-2      4.321 /_   29.5    1.0387
   -     2       2.4997 /_ -120.4    1.0408     4.160        2-3     4.3306 /_  -90.5     1.041
   -     3       2.4985 /_  119.5    1.0403     4.160        3-1     4.3269 /_  149.4    1.0401
149 .... 1        2.495 /_   -0.6    1.0388     4.160        1-2      4.321 /_   29.5    1.0387
   -     2       2.4997 /_ -120.4    1.0408     4.160        2-3     4.3306 /_  -90.5     1.041
   -     3       2.4985 /_  119.5    1.0403     4.160        3-1     4.3269 /_  149.4    1.0401
1 ...... 1       2.4637 /_   -1.2    1.0258     4.160        1-2     4.2815 /_   29.2    1.0292
   -     2       2.4933 /_ -120.7    1.0381     4.160        2-3     4.3071 /_  -90.9    1.0354
   -     3       2.4763 /_  119.1     1.031     4.160        3-1     4.2864 /_  148.9    1.0304
2 ...... 2       2.4928 /_ -120.7    1.0379     4.160
3 ...... 3       2.4723 /_  119.1    1.0294     4.160
7 ...... 1       2.4405 /_   -1.7    1.0161     4.160        1-2     4.2528 /_   29.0    1.0223
   -     2       2.4888 /_ -121.0    1.0362     4.160        2-3     4.2905 /_  -91.2    1.0314
   -     3       2.4619 /_  118.9     1.025     4.160        3-1     4.2584 /_  148.5    1.0237
4 ...... 3       2.4711 /_  119.1    1.0289     4.160
5 ...... 3       2.4692 /_  119.1    1.0281     4.160
6 ...... 3       2.4676 /_  119.1    1.0274     4.160
8 ...... 1       2.4254 /_   -2.0    1.0098     4.160        1-2      4.234 /_   28.8    1.0178
   -     2       2.4856 /_ -121.1    1.0349     4.160        2-3     4.2795 /_  -91.4    1.0287
   -     3       2.4524 /_  118.7    1.0211     4.160        3-1       4.24 /_  148.2    1.0192
12 ..... 2       2.4849 /_ -121.1    1.0346     4.160
9 ...... 1       2.4218 /_   -2.0    1.0083     4.160
13 ..... 1       2.4053 /_   -2.4    1.0015     4.160        1-2     4.2076 /_   28.6    1.0114
   -     2         2.48 /_ -121.4    1.0326     4.160        2-3     4.2632 /_  -91.7    1.0248
   -     3       2.4381 /_  118.5    1.0151     4.160        3-1     4.2134 /_  147.8    1.0128
9R ..... 1       2.4188 /_   -2.2    1.0071     4.160
14 ..... 1       2.4147 /_   -2.2    1.0054     4.160
34 ..... 3       2.4358 /_  118.4    1.0141     4.160
18 ..... 1       2.3836 /_   -2.9   0.99241     4.160        1-2     4.1767 /_   28.4     1.004
   -     2         2.47 /_ -121.6    1.0284     4.160        2-3     4.2353 /_  -91.9    1.0181
   -     3       2.4203 /_  118.4    1.0077     4.160        3-1     4.1864 /_  147.5    1.0063
11 ..... 1       2.4132 /_   -2.2    1.0047     4.160
10 ..... 1        2.414 /_   -2.2    1.0051     4.160
15 ..... 3       2.4348 /_  118.4    1.0138     4.160
16 ..... 3       2.4325 /_  118.4    1.0128     4.160
17 ..... 3       2.4337 /_  118.4    1.0133     4.160
19 ..... 1       2.3804 /_   -2.9   0.99109     4.160
21 ..... 1       2.3822 /_   -2.9   0.99186     4.160        1-2     4.1745 /_   28.4    1.0035
   -     2       2.4702 /_ -121.6    1.0285     4.160        2-3     4.2335 /_  -92.0    1.0177
   -     3       2.4175 /_  118.4    1.0066     4.160        3-1     4.1834 /_  147.5    1.0056
20 ..... 1       2.3783 /_   -2.9   0.99023     4.160
22 ..... 2       2.4667 /_ -121.6    1.0271     4.160
23 ..... 1       2.3812 /_   -3.0   0.99144     4.160        1-2      4.173 /_   28.4    1.0031
   -     2       2.4711 /_ -121.6    1.0289     4.160        2-3     4.2326 /_  -92.0    1.0174
   -     3       2.4148 /_  118.4    1.0054     4.160        3-1      4.181 /_  147.5     1.005
24 ..... 3       2.4114 /_  118.3     1.004     4.160
25 ..... 1       2.3796 /_   -3.0   0.99078     4.160        1-2     4.1711 /_   28.3    1.0027
   -     2       2.4722 /_ -121.6    1.0293     4.160        2-3     4.2319 /_  -92.0    1.0173
   -     3       2.4127 /_  118.4    1.0045     4.160        3-1     4.1789 /_  147.4    1.0045
25R .... 1       2.4073 /_   -3.1    1.0023     4.160
   -     3       2.4107 /_  118.3    1.0037     4.160        3-1     4.2013 /_  147.5    1.0099
26 ..... 1       2.4067 /_   -3.1     1.002     4.160
   -     3       2.4095 /_  118.3    1.0032     4.160        3-1     4.2001 /_  147.5    1.0096
28 ..... 1       2.3787 /_   -3.1   0.99041     4.160        1-2     4.1702 /_   28.3    1.0025
   -     2       2.4727 /_ -121.6    1.0295     4.160        2-3     4.2316 /_  -92.0    1.0172
   -     3       2.4119 /_  118.4    1.0042     4.160        3-1      4.178 /_  147.4    1.0043
27 ..... 1       2.4058 /_   -3.2    1.0017     4.160
   -     3       2.4094 /_  118.3    1.0032     4.160        3-1     4.1998 /_  147.5    1.0096
31 ..... 3       2.4081 /_  118.2    1.0026     4.160
33 ..... 1       2.4027 /_   -3.2    1.0004     4.160
29 ..... 1       2.3784 /_   -3.1   0.99025     4.160        1-2     4.1696 /_   28.3    1.0023
   -     2       2.4731 /_ -121.6    1.0297     4.160        2-3     4.2313 /_  -92.0    1.0171
   -     3       2.4108 /_  118.4    1.0038     4.160        3-1      4.177 /_  147.4    1.0041
30 ..... 1        2.379 /_   -3.1   0.99051     4.160        1-2     4.1697 /_   28.3    1.0023
   -     2        2.473 /_ -121.6    1.0296     4.160        2-3     4.2309 /_  -92.0    1.0171
   -     3       2.4097 /_  118.3    1.0033     4.160        3-1     4.1763 /_  147.4    1.0039
250 .... 1        2.379 /_   -3.1   0.99051     4.160        1-2     4.1697 /_   28.3    1.0023
   -     2        2.473 /_ -121.6    1.0296     4.160        2-3     4.2309 /_  -92.0    1.0171
   -     3       2.4097 /_  118.3    1.0033     4.160        3-1     4.1763 /_  147.4    1.0039
32 ..... 3       2.4072 /_  118.2    1.0022     4.160
35 ..... 1       2.3769 /_   -2.9   0.98963     4.160        1-2     4.1657 /_   28.3    1.0014
   -     2       2.4639 /_ -121.7    1.0259     4.160        2-3     4.2273 /_  -92.0    1.0162
   -     3       2.4178 /_  118.3    1.0067     4.160        3-1     4.1789 /_  147.4    1.0045
36 ..... 1       2.3747 /_   -3.0   0.98871     4.160        1-2     4.1634 /_   28.3    1.0008
   -     2       2.4628 /_ -121.7    1.0254     4.160
40 ..... 1       2.3732 /_   -3.0   0.98811     4.160        1-2     4.1604 /_   28.3    1.0001
   -     2       2.4612 /_ -121.7    1.0247     4.160        2-3     4.2227 /_  -92.0    1.0151
   -     3       2.4153 /_  118.3    1.0056     4.160        3-1     4.1733 /_  147.4    1.0032
37 ..... 1       2.3728 /_   -3.0   0.98792     4.160
38 ..... 2       2.4612 /_ -121.7    1.0247     4.160
39 ..... 2       2.4602 /_ -121.8    1.0243     4.160
41 ..... 3       2.4143 /_  118.3    1.0052     4.160
42 ..... 1       2.3694 /_   -3.0   0.98652     4.160        1-2     4.1551 /_   28.2   0.99883
   -     2       2.4585 /_ -121.8    1.0236     4.160        2-3     4.2182 /_  -92.1     1.014
   -     3       2.4132 /_  118.2    1.0048     4.160        3-1     4.1681 /_  147.3    1.0019
43 ..... 2       2.4552 /_ -121.8    1.0223     4.160
44 ..... 1       2.3668 /_   -3.0   0.98542     4.160        1-2     4.1514 /_   28.2   0.99792
   -     2       2.4568 /_ -121.8    1.0229     4.160        2-3     4.2151 /_  -92.1    1.0132
   -     3       2.4112 /_  118.2    1.0039     4.160        3-1     4.1641 /_  147.3     1.001
45 ..... 1       2.3655 /_   -3.1   0.98489     4.160
47 ..... 1       2.3643 /_   -3.1   0.98438     4.160        1-2     4.1472 /_   28.2   0.99693
   -     2       2.4542 /_ -121.8    1.0218     4.160        2-3     4.2111 /_  -92.1    1.0123
   -     3       2.4088 /_  118.2    1.0029     4.160        3-1     4.1593 /_  147.2   0.99983
46 ..... 1       2.3645 /_   -3.1   0.98449     4.160
48 ..... 1       2.3636 /_   -3.1   0.98411     4.160        1-2      4.146 /_   28.2   0.99664
   -     2       2.4535 /_ -121.9    1.0215     4.160        2-3     4.2102 /_  -92.2    1.0121
   -     3       2.4083 /_  118.2    1.0027     4.160        3-1     4.1582 /_  147.2   0.99957
49 ..... 1       2.3636 /_   -3.1   0.98411     4.160        1-2     4.1455 /_   28.2   0.99652
   -     2       2.4529 /_ -121.9    1.0213     4.160        2-3     4.2097 /_  -92.2    1.0119
   -     3        2.408 /_  118.1    1.0026     4.160        3-1     4.1577 /_  147.2   0.99944
50 ..... 1       2.3636 /_   -3.1   0.98409     4.160        1-2     4.1451 /_   28.2   0.99642
   -     2       2.4529 /_ -121.8    1.0213     4.160        2-3     4.2094 /_  -92.2    1.0119
   -     3       2.4072 /_  118.1    1.0023     4.160        3-1     4.1569 /_  147.2   0.99926
51 ..... 1       2.3632 /_   -3.1   0.98392     4.160        1-2     4.1448 /_   28.2   0.99634
   -     2       2.4531 /_ -121.8    1.0214     4.160        2-3     4.2095 /_  -92.2    1.0119
   -     3       2.4072 /_  118.1    1.0023     4.160        3-1     4.1568 /_  147.2   0.99923
151 .... 1       2.3632 /_   -3.1   0.98392     4.160        1-2     4.1448 /_   28.2   0.99634
   -     2       2.4531 /_ -121.8    1.0214     4.160        2-3     4.2095 /_  -92.2    1.0119
   -     3       2.4072 /_  118.1    1.0023     4.160        3-1     4.1568 /_  147.2   0.99923
52 ..... 1       2.3897 /_   -2.8   0.99496     4.160        1-2     4.1884 /_   28.4    1.0068
   -     2       2.4765 /_ -121.6    1.0311     4.160        2-3     4.2525 /_  -92.0    1.0222
   -     3       2.4294 /_  118.2    1.0115     4.160        3-1      4.195 /_  147.4    1.0084
53 ..... 1       2.3825 /_   -3.0   0.99199     4.160        1-2     4.1793 /_   28.3    1.0046
   -     2       2.4744 /_ -121.7    1.0302     4.160        2-3     4.2472 /_  -92.1     1.021
   -     3       2.4252 /_  118.1    1.0097     4.160        3-1     4.1861 /_  147.3    1.0063
54 ..... 1       2.3785 /_   -3.1    0.9903     4.160        1-2     4.1739 /_   28.2    1.0034
   -     2       2.4728 /_ -121.8    1.0296     4.160        2-3     4.2438 /_  -92.2    1.0201
   -     3       2.4225 /_  118.0    1.0086     4.160        3-1     4.1807 /_  147.2     1.005
55 ..... 1        2.378 /_   -3.1   0.99009     4.160        1-2     4.1735 /_   28.2    1.0032
   -     2       2.4727 /_ -121.8    1.0295     4.160        2-3     4.2435 /_  -92.2    1.0201
   -     3       2.4227 /_  118.0    1.0087     4.160        3-1     4.1805 /_  147.2    1.0049
57 ..... 1       2.3699 /_   -3.4   0.98672     4.160        1-2     4.1581 /_   28.0   0.99954
   -     2       2.4655 /_ -122.0    1.0265     4.160        2-3     4.2316 /_  -92.4    1.0172
   -     3       2.4156 /_  117.8    1.0058     4.160        3-1     4.1691 /_  146.9    1.0022
56 ..... 1       2.3779 /_   -3.1   0.99006     4.160        1-2     4.1734 /_   28.2    1.0032
   -     2       2.4722 /_ -121.8    1.0293     4.160        2-3     4.2432 /_  -92.2      1.02
   -     3       2.4229 /_  118.0    1.0088     4.160        3-1     4.1805 /_  147.2    1.0049
58 ..... 2        2.464 /_ -122.0    1.0259     4.160
60 ..... 1       2.3519 /_   -4.0   0.97924     4.160        1-2      4.125 /_   27.5   0.99158
   -     2       2.4524 /_ -122.4    1.0211     4.160        2-3     4.2075 /_  -92.8    1.0114
   -     3       2.3996 /_  117.4   0.99908     4.160        3-1     4.1444 /_  146.3   0.99624
59 ..... 2       2.4632 /_ -122.0    1.0256     4.160
61 ..... 1       2.3519 /_   -4.0   0.97924     4.160        1-2      4.125 /_   27.5   0.99158
   -     2       2.4524 /_ -122.4    1.0211     4.160        2-3     4.2075 /_  -92.8    1.0114
   -     3       2.3996 /_  117.4   0.99908     4.160        3-1     4.1444 /_  146.3   0.99624
62 ..... 1       2.3501 /_   -4.0   0.97847     4.160        1-2     4.1206 /_   27.5   0.99053
   -     2       2.4496 /_ -122.3    1.0199     4.160        2-3     4.2016 /_  -92.9      1.01
   -     3       2.3946 /_  117.4   0.99703     4.160        3-1     4.1381 /_  146.4   0.99473
63 ..... 1       2.3486 /_   -4.0   0.97786     4.160        1-2     4.1176 /_   27.5   0.98981
   -     2       2.4476 /_ -122.3    1.0191     4.160        2-3     4.1982 /_  -92.9    1.0092
   -     3       2.3922 /_  117.4   0.99602     4.160        3-1     4.1343 /_  146.4   0.99382
64 ..... 1       2.3478 /_   -4.0   0.97753     4.160        1-2     4.1127 /_   27.5   0.98864
   -     2        2.443 /_ -122.3    1.0172     4.160        2-3     4.1911 /_  -92.9    1.0075
   -     3        2.387 /_  117.3   0.99386     4.160        3-1      4.128 /_  146.4    0.9923
65 ..... 1       2.3462 /_   -4.0   0.97685     4.160        1-2     4.1095 /_   27.6   0.98787
   -     2       2.4422 /_ -122.2    1.0168     4.160        2-3     4.1852 /_  -92.9    1.0061
   -     3       2.3798 /_  117.3   0.99085     4.160        3-1     4.1203 /_  146.4   0.99047
66 ..... 1       2.3468 /_   -4.0   0.97709     4.160        1-2     4.1094 /_   27.6   0.98784
   -     2       2.4428 /_ -122.2    1.0171     4.160        2-3     4.1831 /_  -92.9    1.0056
   -     3       2.3762 /_  117.3   0.98934     4.160        3-1     4.1181 /_  146.4   0.98993
67 ..... 1       2.5013 /_   -5.7    1.0415     4.160        1-2     4.2896 /_   25.4    1.0312
   -     2       2.5089 /_ -123.5    1.0446     4.160        2-3     4.3296 /_  -93.8    1.0408
   -     3       2.4817 /_  116.2    1.0333     4.160        3-1     4.3555 /_  145.3     1.047
68 ..... 1       2.4977 /_   -5.7    1.0399     4.160
72 ..... 1       2.5018 /_   -5.8    1.0416     4.160        1-2     4.2879 /_   25.3    1.0307
   -     2       2.5064 /_ -123.6    1.0436     4.160        2-3      4.327 /_  -93.9    1.0402
   -     3       2.4807 /_  116.0    1.0329     4.160        3-1     4.3546 /_  145.3    1.0468
97 ..... 1       2.4989 /_   -5.8    1.0405     4.160        1-2     4.2859 /_   25.4    1.0303
   -     2       2.5078 /_ -123.5    1.0441     4.160        2-3      4.327 /_  -93.9    1.0401
   -     3       2.4799 /_  116.1    1.0325     4.160        3-1     4.3526 /_  145.3    1.0463
69 ..... 1       2.4935 /_   -5.8    1.0382     4.160
70 ..... 1       2.4905 /_   -5.8    1.0369     4.160
71 ..... 1       2.4888 /_   -5.8    1.0363     4.160
73 ..... 3       2.4755 /_  116.0    1.0307     4.160
76 ..... 1       2.5012 /_   -5.9    1.0414     4.160        1-2     4.2868 /_   25.3    1.0305
   -     2       2.5049 /_ -123.7    1.0429     4.160        2-3     4.3258 /_  -94.0    1.0398
   -     3       2.4818 /_  116.0    1.0333     4.160        3-1     4.3555 /_  145.2     1.047
74 ..... 3       2.4711 /_  116.0    1.0289     4.160
75 ..... 3       2.4686 /_  115.9    1.0278     4.160
77 ..... 1        2.504 /_   -5.9    1.0426     4.160        1-2      4.292 /_   25.2    1.0317
   -     2       2.5078 /_ -123.8    1.0442     4.160        2-3       4.33 /_  -94.1    1.0409
   -     3       2.4839 /_  115.9    1.0342     4.160        3-1     4.3595 /_  145.1     1.048
86 ..... 1       2.4979 /_   -5.9      1.04     4.160        1-2     4.2821 /_   25.2    1.0294
   -     2       2.4995 /_ -123.8    1.0407     4.160        2-3     4.3204 /_  -94.0    1.0386
   -     3       2.4841 /_  116.0    1.0343     4.160        3-1     4.3544 /_  145.1    1.0467
78 ..... 1       2.5048 /_   -6.0    1.0429     4.160        1-2     4.2933 /_   25.2    1.0321
   -     2       2.5088 /_ -123.8    1.0446     4.160        2-3     4.3313 /_  -94.1    1.0412
   -     3       2.4843 /_  115.9    1.0344     4.160        3-1     4.3605 /_  145.1    1.0482
79 ..... 1        2.504 /_   -6.0    1.0426     4.160        1-2     4.2927 /_   25.2    1.0319
   -     2       2.5092 /_ -123.8    1.0447     4.160        2-3     4.3313 /_  -94.1    1.0412
   -     3       2.4842 /_  115.9    1.0343     4.160        3-1     4.3602 /_  145.1    1.0481
80 ..... 1       2.5098 /_   -6.0     1.045     4.160        1-2     4.3012 /_   25.1    1.0339
   -     2        2.513 /_ -123.8    1.0463     4.160        2-3     4.3377 /_  -94.2    1.0427
   -     3       2.4863 /_  115.8    1.0352     4.160        3-1     4.3657 /_  145.0    1.0494
81 ..... 1       2.5117 /_   -6.0    1.0458     4.160        1-2     4.3042 /_   25.1    1.0347
   -     2       2.5151 /_ -123.8    1.0472     4.160        2-3     4.3405 /_  -94.2    1.0434
   -     3       2.4868 /_  115.8    1.0354     4.160        3-1     4.3676 /_  145.0    1.0499
82 ..... 1       2.5138 /_   -6.1    1.0466     4.160        1-2     4.3085 /_   25.1    1.0357
   -     2       2.5182 /_ -123.9    1.0485     4.160        2-3     4.3448 /_  -94.3    1.0444
   -     3       2.4886 /_  115.7    1.0362     4.160        3-1     4.3711 /_  145.0    1.0508
84 ..... 3       2.4806 /_  115.7    1.0328     4.160
83 ..... 1       2.5166 /_   -6.1    1.0478     4.160        1-2     4.3134 /_   25.0    1.0369
   -     2       2.5209 /_ -123.9    1.0496     4.160        2-3     4.3492 /_  -94.3    1.0455
   -     3       2.4906 /_  115.7     1.037     4.160        3-1     4.3749 /_  145.0    1.0517
85 ..... 3       2.4777 /_  115.7    1.0316     4.160
87 ..... 1       2.4959 /_   -5.9    1.0392     4.160        1-2     4.2795 /_   25.1    1.0287
   -     2       2.4969 /_ -123.9    1.0396     4.160        2-3     4.3171 /_  -94.0    1.0378
   -     3       2.4847 /_  116.0    1.0345     4.160        3-1     4.3534 /_  145.1    1.0465
88 ..... 1       2.4951 /_   -5.9    1.0389     4.160
89 ..... 1       2.4951 /_   -5.9    1.0389     4.160        1-2     4.2786 /_   25.1    1.0285
   -     2       2.4957 /_ -123.9    1.0391     4.160        2-3     4.3159 /_  -94.1    1.0375
   -     3        2.485 /_  116.0    1.0346     4.160        3-1     4.3527 /_  145.1    1.0463
90 ..... 2       2.4946 /_ -124.0    1.0386     4.160
91 ..... 1       2.4947 /_   -5.9    1.0387     4.160        1-2     4.2779 /_   25.1    1.0283
   -     2       2.4951 /_ -123.9    1.0389     4.160        2-3     4.3152 /_  -94.1    1.0373
   -     3       2.4848 /_  115.9    1.0346     4.160        3-1     4.3521 /_  145.1    1.0462
92 ..... 3       2.4836 /_  115.9     1.034     4.160
93 ..... 1        2.494 /_   -5.9    1.0384     4.160        1-2     4.2772 /_   25.1    1.0282
   -     2       2.4947 /_ -124.0    1.0387     4.160        2-3     4.3146 /_  -94.1    1.0372
   -     3       2.4851 /_  116.0    1.0347     4.160        3-1     4.3519 /_  145.1    1.0461
94 ..... 1       2.4923 /_   -5.9    1.0377     4.160
95 ..... 1       2.4939 /_   -5.9    1.0384     4.160        1-2     4.2769 /_   25.1    1.0281
   -     2       2.4938 /_ -124.0    1.0383     4.160        2-3     4.3139 /_  -94.1     1.037
   -     3       2.4855 /_  116.0    1.0349     4.160        3-1      4.352 /_  145.1    1.0461
96 ..... 2       2.4932 /_ -124.0    1.0381     4.160
98 ..... 1       2.4984 /_   -5.8    1.0402     4.160        1-2     4.2849 /_   25.4      1.03
   -     2       2.5071 /_ -123.5    1.0439     4.160        2-3     4.3261 /_  -93.9    1.0399
   -     3       2.4794 /_  116.1    1.0323     4.160        3-1     4.3518 /_  145.3    1.0461
99 ..... 1       2.4991 /_   -5.8    1.0405     4.160        1-2     4.2843 /_   25.4    1.0299
   -     2       2.5052 /_ -123.5    1.0431     4.160        2-3     4.3243 /_  -93.9    1.0395
   -     3       2.4786 /_  116.1     1.032     4.160        3-1     4.3506 /_  145.3    1.0458
100 .... 1       2.4996 /_   -5.8    1.0407     4.160        1-2     4.2842 /_   25.4    1.0299
   -     2        2.505 /_ -123.5     1.043     4.160        2-3      4.324 /_  -93.9    1.0394
   -     3       2.4776 /_  116.1    1.0316     4.160        3-1     4.3498 /_  145.3    1.0456
450 .... 1       2.4996 /_   -5.8    1.0407     4.160        1-2     4.2842 /_   25.4    1.0299
   -     2        2.505 /_ -123.5     1.043     4.160        2-3      4.324 /_  -93.9    1.0394
   -     3       2.4776 /_  116.1    1.0316     4.160        3-1     4.3498 /_  145.3    1.0456
197 .... 1       2.4989 /_   -5.8    1.0405     4.160        1-2     4.2859 /_   25.4    1.0303
   -     2       2.5078 /_ -123.5    1.0441     4.160        2-3      4.327 /_  -93.9    1.0401
   -     3       2.4799 /_  116.1    1.0325     4.160        3-1     4.3526 /_  145.3    1.0463
101 .... 1        2.497 /_   -5.8    1.0396     4.160        1-2      4.283 /_   25.4    1.0296
   -     2       2.5071 /_ -123.5    1.0439     4.160        2-3     4.3252 /_  -93.9    1.0397
   -     3       2.4786 /_  116.1     1.032     4.160        3-1     4.3505 /_  145.3    1.0458
102 .... 3       2.4752 /_  116.1    1.0306     4.160
105 .... 1       2.4938 /_   -5.8    1.0383     4.160        1-2     4.2801 /_   25.4    1.0289
   -     2       2.5068 /_ -123.6    1.0437     4.160        2-3     4.3239 /_  -93.9    1.0394
   -     3       2.4793 /_  116.2    1.0323     4.160        3-1     4.3497 /_  145.2    1.0456
103 .... 3       2.4712 /_  116.1    1.0289     4.160
104 .... 3       2.4669 /_  116.0    1.0271     4.160
106 .... 2        2.504 /_ -123.6    1.0426     4.160
108 .... 1       2.4902 /_   -5.9    1.0368     4.160        1-2     4.2771 /_   25.4    1.0282
   -     2       2.5083 /_ -123.6    1.0444     4.160        2-3     4.3238 /_  -93.9    1.0394
   -     3        2.479 /_  116.2    1.0321     4.160        3-1     4.3486 /_  145.2    1.0453
107 .... 2       2.5005 /_ -123.6    1.0411     4.160
109 .... 1       2.4804 /_   -6.0    1.0327     4.160
300 .... 1       2.4902 /_   -5.9    1.0368     4.160        1-2     4.2771 /_   25.4    1.0282
   -     2       2.5083 /_ -123.6    1.0444     4.160        2-3     4.3238 /_  -93.9    1.0394
   -     3        2.479 /_  116.2    1.0321     4.160        3-1     4.3486 /_  145.2    1.0453
110 .... 1       2.4756 /_   -6.0    1.0307     4.160
111 .... 1       2.4739 /_   -6.0      1.03     4.160
112 .... 1        2.474 /_   -6.0    1.0301     4.160
113 .... 1        2.469 /_   -6.1     1.028     4.160
114 .... 1        2.468 /_   -6.1    1.0276     4.160
135 .... 1       2.3836 /_   -2.9   0.99241     4.160        1-2     4.1767 /_   28.4     1.004
   -     2         2.47 /_ -121.6    1.0284     4.160        2-3     4.2353 /_  -91.9    1.0181
   -     3       2.4203 /_  118.4    1.0077     4.160        3-1     4.1864 /_  147.5    1.0063
152 .... 1       2.4053 /_   -2.4    1.0015     4.160        1-2     4.2076 /_   28.6    1.0114
   -     2         2.48 /_ -121.4    1.0326     4.160        2-3     4.2632 /_  -91.7    1.0248
   -     3       2.4381 /_  118.5    1.0151     4.160        3-1     4.2134 /_  147.8    1.0128
160R ... 1       2.5065 /_   -5.5    1.0436     4.160        1-2      4.298 /_   25.6    1.0332
   -     2       2.5116 /_ -123.3    1.0457     4.160        2-3     4.3378 /_  -93.7    1.0427
   -     3       2.4874 /_  116.3    1.0356     4.160        3-1     4.3626 /_  145.5    1.0487
160 .... 1       2.3519 /_   -4.0   0.97924     4.160        1-2      4.125 /_   27.5   0.99158
   -     2       2.4524 /_ -122.4    1.0211     4.160        2-3     4.2075 /_  -92.8    1.0114
   -     3       2.3996 /_  117.4   0.99908     4.160        3-1     4.1444 /_  146.3   0.99624
61S .... 1       2.3519 /_   -4.0   0.97924     4.160        1-2      4.125 /_   27.5   0.99158
   -     2       2.4524 /_ -122.4    1.0211     4.160        2-3     4.2075 /_  -92.8    1.0114
   -     3       2.3996 /_  117.4   0.99908     4.160        3-1     4.1444 /_  146.3   0.99624
300_OPEN 1       2.3632 /_   -3.1   0.98392     4.160        1-2     4.1448 /_   28.2   0.99634
   -     2       2.4531 /_ -121.8    1.0214     4.160        2-3     4.2095 /_  -92.2    1.0119
   -     3       2.4072 /_  118.1    1.0023     4.160        3-1     4.1568 /_  147.2   0.99923
94_OPEN  1       2.3785 /_   -3.1    0.9903     4.160
610 .... 1       0.2738 /_   -3.1   0.98801     0.480        1-2    0.47596 /_   27.5   0.99158
   -     2      0.27805 /_ -122.3    1.0033     0.480        2-3    0.48548 /_  -92.8    1.0114
   -     3      0.27932 /_  116.5    1.0079     0.480        3-1    0.47819 /_  146.3   0.99624
